70

C1         20.40980002       28.66549999       35.67089999
H1         20.37070002       27.57709999       35.71370000
O1         21.71999999       29.14790000       35.63139998
C2         22.21689998       29.11889997       36.95730000
H2         22.47640002       28.08779998       37.19749999
N1         23.36950002       30.04309998       37.02249998
C3         23.28529999       31.27890001       36.49459999
H3         22.43580001       31.61580000       35.91909998
C4         24.29079998       32.16040002       36.64190001
H4         24.22549998       33.08080001       36.08070001
C5         25.43049999       31.71899998       37.39099999
N2         26.46039998       32.49150001       37.44270002
H5         27.29119999       32.22850000       37.95340000
H6         26.63160002       33.26099998       36.81130001
N3         25.49340001       30.54409999       37.92970001
C6         24.41070000       29.79760002       37.86500000
O2         24.44980000       28.76680001       38.50389999
C7         19.78570001       29.31289999       36.87190000
H7         19.31320001       30.22899999       36.51740001
C8         20.99800002       29.61809998       37.76980001
H8         21.12030002       30.68069999       37.97940001
H9         20.83510001       28.94589998       38.61229998
O3         18.79910001       28.44709998       37.42169999
P1         17.97950002       28.78749999       38.76609999
O4         16.92280002       27.73699999       38.77610001
O5         17.52820002       30.19410001       38.72949998
O6         18.88799998       28.63390001       39.98379999
C9         19.24870002       27.32399999       40.46440000
H10         19.86989999       26.84169999       39.70959999
H11         18.41430001       26.64280000       40.63109998
C10         23.13680000       27.54019999       31.61220000
C11         24.39309998       28.18870000       31.35469999
C12         24.66570002       28.92740000       30.21010000
C13         23.68630000       28.90209999       29.17989998
C14         22.51040002       28.11800002       29.29899999
C15         22.15599999       27.62510002       30.49940002
C16         22.89400000       26.89990001       32.78860000
N4         21.90970002       25.99339998       32.92090001
H12         22.16549999       25.19089998       33.48189998
H13         21.41090001       25.64540002       32.11210001
N5         23.67290001       26.95610001       33.86840001
H14         24.11620002       27.86399998       33.92669999
H15         23.12400000       26.75270000       34.69390000
C17         23.83070002       29.71000002       28.02520001
N6         25.03400000       30.35120003       27.76060002
C18         24.83629997       31.05049998       26.60139998
H16         25.90830002       30.23549998       28.25280003
C19         23.50680002       30.95479998       26.17999998
C20         25.86599998       31.61789998       25.94669998
C21         22.84709998       30.12349999       27.04590000
C22         23.13079998       31.33660001       24.89830002
C23         24.13489998       32.02740001       24.17710001
C24         25.55419998       32.24009998       24.61490001
C25         26.49570001       32.87630001       23.88170001
N7         27.68890001       33.17110003       24.28799999
H17         28.35120000       32.97359998       23.54880002
H18         27.89109999       32.68049999       25.14969999
N8         26.24899998       33.46080000       22.68389998
H19         25.29749998       33.75630001       22.50649999
H20         26.96939998       34.14730000       22.49989998
H21         25.19190002       28.15829998       32.08679999
H22         25.59240002       29.46890000       30.05849999
H23         21.29880001       26.96609997       30.57680002
H24         21.88820002       28.11159999       28.41139999
H25         21.90039999       29.61820000       26.89279999
H26         22.16769999       31.09579999       24.46300001
H27         23.93750000       32.35120000       23.16160000
H28         26.88979998       31.65160000       26.30140000
H29         19.88889332       28.80831068       34.74723265
H30         19.85561326       27.27088737       41.34402228